* NGSPICE file created from ina_top.ext - technology: sky130A

.subckt ina_top VO2 VI_2A VI_2B VI_1B VI_1A IREF VCM VO1 AVDD AVSS
X0 dda_0.VD6 dda_0.VCMFB AVDD AVDD sky130_fd_pr__pfet_01v8_hvt ad=0.145 pd=1.29 as=0.29 ps=2.58 w=1 l=1
X1 a_13371_n9266# VB1 AVDD AVDD sky130_fd_pr__pfet_01v8_hvt ad=0.145 pd=1.29 as=0.29 ps=2.58 w=1 l=1
X2 AVSS AVSS AVSS AVSS sky130_fd_pr__nfet_01v8 ad=0.145 pd=1.29 as=0 ps=0 w=1 l=1
X3 AVDD AVDD AVDD AVDD sky130_fd_pr__pfet_01v8_hvt ad=0.29 pd=2.58 as=0 ps=0 w=1 l=1
X4 dda_0.VIT_P2 VB1 AVDD AVDD sky130_fd_pr__pfet_01v8_hvt ad=0.145 pd=1.29 as=0.29 ps=2.58 w=1 l=1
X5 VB2 VB2 a_22576_n12663# AVSS sky130_fd_pr__nfet_01v8 ad=0.29 pd=2.58 as=0.145 ps=1.29 w=1 l=1
X6 AVSS AVSS AVSS AVSS sky130_fd_pr__nfet_01v8 ad=0.145 pd=1.29 as=0 ps=0 w=1 l=1
X7 dda_0.VIT_P2 VB1 AVDD AVDD sky130_fd_pr__pfet_01v8_hvt ad=0.145 pd=1.29 as=0.29 ps=2.58 w=1 l=1
X8 dda_0.VCMFB dda_0.VCMFB AVDD AVDD sky130_fd_pr__pfet_01v8_hvt ad=0.145 pd=1.29 as=0.29 ps=2.58 w=1 l=1
X9 AVDD AVDD AVDD AVDD sky130_fd_pr__pfet_01v8_hvt ad=0.29 pd=2.58 as=0 ps=0 w=1 l=1
X10 AVDD AVDD AVDD AVDD sky130_fd_pr__pfet_01v8_hvt ad=0.145 pd=1.29 as=0 ps=0 w=1 l=1
X11 AVDD AVDD AVDD AVDD sky130_fd_pr__pfet_01v8_hvt ad=0.145 pd=1.29 as=0 ps=0 w=1 l=1
X12 AVSS VB2 dda_0.VIT_N2 AVSS sky130_fd_pr__nfet_01v8 ad=0.29 pd=2.58 as=0.145 ps=1.29 w=1 l=1
X13 AVDD AVDD AVDD AVDD sky130_fd_pr__pfet_01v8_hvt ad=0.145 pd=1.29 as=0 ps=0 w=1 l=1
X14 AVDD VB1 a_15629_n15210# AVDD sky130_fd_pr__pfet_01v8_hvt ad=0.29 pd=2.58 as=0.145 ps=1.29 w=1 l=1
X15 AVDD AVDD AVDD AVDD sky130_fd_pr__pfet_01v8_hvt ad=0.29 pd=2.58 as=0 ps=0 w=1 l=1
X16 dda_0.VIT_P2 VB1 AVDD AVDD sky130_fd_pr__pfet_01v8_hvt ad=0.145 pd=1.29 as=0.29 ps=2.58 w=1 l=1
X17 AVDD dda_0.VD1 dda_0.VD1 AVDD sky130_fd_pr__pfet_01v8_hvt ad=0.145 pd=1.29 as=0.145 ps=1.29 w=1 l=1
X18 AVDD AVDD AVDD AVDD sky130_fd_pr__pfet_01v8_hvt ad=0.29 pd=2.58 as=0 ps=0 w=1 l=1
X19 AVDD AVDD AVDD AVDD sky130_fd_pr__pfet_01v8_hvt ad=0.29 pd=2.58 as=0 ps=0 w=1 l=1
X20 AVDD AVDD AVDD AVDD sky130_fd_pr__pfet_01v8_hvt ad=0.29 pd=2.58 as=0 ps=0 w=1 l=1
X21 dda_0.VD5 dda_0.VCMFB AVDD AVDD sky130_fd_pr__pfet_01v8_hvt ad=0.145 pd=1.29 as=0.145 ps=1.29 w=1 l=1
X22 AVDD AVDD AVDD AVDD sky130_fd_pr__pfet_01v8_hvt ad=0.29 pd=2.58 as=0 ps=0 w=1 l=1
X23 AVDD AVDD AVDD AVDD sky130_fd_pr__pfet_01v8_hvt ad=0.29 pd=2.58 as=0 ps=0 w=1 l=1
X24 AVDD AVDD AVDD AVDD sky130_fd_pr__pfet_01v8_hvt ad=0.29 pd=2.58 as=0 ps=0 w=1 l=1
X25 AVDD dda_0.VCMFB dda_0.VCMFB AVDD sky130_fd_pr__pfet_01v8_hvt ad=0.145 pd=1.29 as=0.145 ps=1.29 w=1 l=1
X26 AVDD AVDD AVDD AVDD sky130_fd_pr__pfet_01v8_hvt ad=0.145 pd=1.29 as=0 ps=0 w=1 l=1
X27 AVSS AVSS AVSS AVSS sky130_fd_pr__nfet_01v8 ad=0.29 pd=2.58 as=0 ps=0 w=1 l=1
X28 AVDD AVDD AVDD AVDD sky130_fd_pr__pfet_01v8_hvt ad=0.145 pd=1.29 as=0 ps=0 w=1 l=1
X29 dda_0.SUM_P VI_1A dda_0.VIT_P1 AVDD sky130_fd_pr__pfet_01v8_hvt ad=0.145 pd=1.29 as=0.29 ps=2.58 w=1 l=1
X30 AVSS AVSS AVSS AVSS sky130_fd_pr__nfet_01v8 ad=0.29 pd=2.58 as=0 ps=0 w=1 l=1
X31 VO1 VB4 dda_0.VD5 AVDD sky130_fd_pr__pfet_01v8_hvt ad=0.145 pd=1.29 as=0.145 ps=1.29 w=1 l=1
X32 AVDD AVDD AVDD AVDD sky130_fd_pr__pfet_01v8_hvt ad=0.29 pd=2.58 as=0 ps=0 w=1 l=1
X33 AVDD AVDD AVDD AVDD sky130_fd_pr__pfet_01v8_hvt ad=0.29 pd=2.58 as=0 ps=0 w=1 l=1
X34 AVDD VB1 a_14597_n10774# AVDD sky130_fd_pr__pfet_01v8_hvt ad=0.145 pd=1.29 as=0.145 ps=1.29 w=1 l=1
X35 AVDD dda_0.VD1 dda_0.VD1 AVDD sky130_fd_pr__pfet_01v8_hvt ad=0.29 pd=2.58 as=0.145 ps=1.29 w=1 l=1
X36 AVDD AVDD AVDD AVDD sky130_fd_pr__pfet_01v8_hvt ad=0.145 pd=1.29 as=0 ps=0 w=1 l=1
X37 AVDD VB1 dda_0.VIT_P2 AVDD sky130_fd_pr__pfet_01v8_hvt ad=0.145 pd=1.29 as=0.145 ps=1.29 w=1 l=1
X38 AVDD dda_0.VCMFB dda_0.VCMFB AVDD sky130_fd_pr__pfet_01v8_hvt ad=0.145 pd=1.29 as=0.29 ps=2.58 w=1 l=1
X39 AVDD AVDD AVDD AVDD sky130_fd_pr__pfet_01v8_hvt ad=0.145 pd=1.29 as=0 ps=0 w=1 l=1
X40 AVDD AVDD AVDD AVDD sky130_fd_pr__pfet_01v8_hvt ad=0.29 pd=2.58 as=0 ps=0 w=1 l=1
X41 dda_0.VIT_P2 VB1 AVDD AVDD sky130_fd_pr__pfet_01v8_hvt ad=0.145 pd=1.29 as=0.145 ps=1.29 w=1 l=1
X42 AVSS AVSS AVSS AVSS sky130_fd_pr__nfet_01v8 ad=0.145 pd=1.29 as=0 ps=0 w=1 l=1
X43 AVDD AVDD AVDD AVDD sky130_fd_pr__pfet_01v8_hvt ad=0.29 pd=2.58 as=0 ps=0 w=1 l=1
X44 AVDD AVDD AVDD AVDD sky130_fd_pr__pfet_01v8_hvt ad=0.29 pd=2.58 as=0 ps=0 w=1 l=1
X45 AVDD AVDD AVDD AVDD sky130_fd_pr__pfet_01v8_hvt ad=0.29 pd=2.58 as=0 ps=0 w=1 l=1
X46 dda_0.VIT_P2 VI_2A dda_0.SUM_N AVDD sky130_fd_pr__pfet_01v8_hvt ad=0.29 pd=2.58 as=0.145 ps=1.29 w=1 l=1
X47 AVDD AVDD AVDD AVDD sky130_fd_pr__pfet_01v8_hvt ad=0.29 pd=2.58 as=0 ps=0 w=1 l=1
X48 AVDD dda_0.VCMFB dda_0.VCMFB AVDD sky130_fd_pr__pfet_01v8_hvt ad=0.145 pd=1.29 as=0.145 ps=1.29 w=1 l=1
X49 dda_0.VIT_P2 VI_2A dda_0.SUM_N AVDD sky130_fd_pr__pfet_01v8_hvt ad=0.145 pd=1.29 as=0.145 ps=1.29 w=1 l=1
X50 dda_0.VIT_N1 VB2 AVSS AVSS sky130_fd_pr__nfet_01v8 ad=0.145 pd=1.29 as=0.29 ps=2.58 w=1 l=1
X51 AVSS AVSS AVSS AVSS sky130_fd_pr__nfet_01v8 ad=0.29 pd=2.58 as=0 ps=0 w=1 l=1
X52 dda_0.VCMFB dda_0.VCMFB AVDD AVDD sky130_fd_pr__pfet_01v8_hvt ad=0.145 pd=1.29 as=0.29 ps=2.58 w=1 l=1
X53 dda_0.SUM_P VI_2B dda_0.VIT_P2 AVDD sky130_fd_pr__pfet_01v8_hvt ad=0.145 pd=1.29 as=0.29 ps=2.58 w=1 l=1
X54 VO2 VB4 dda_0.VD6 AVDD sky130_fd_pr__pfet_01v8_hvt ad=0.145 pd=1.29 as=0.29 ps=2.58 w=1 l=1
X55 dda_0.SUM_P VI_2B dda_0.VIT_P2 AVDD sky130_fd_pr__pfet_01v8_hvt ad=0.145 pd=1.29 as=0.29 ps=2.58 w=1 l=1
X56 AVDD VB1 dda_0.VIT_P1 AVDD sky130_fd_pr__pfet_01v8_hvt ad=0.145 pd=1.29 as=0.145 ps=1.29 w=1 l=1
X57 dda_0.VIT_P1 VB1 AVDD AVDD sky130_fd_pr__pfet_01v8_hvt ad=0.145 pd=1.29 as=0.29 ps=2.58 w=1 l=1
X58 AVDD VB1 dda_0.VIT_P1 AVDD sky130_fd_pr__pfet_01v8_hvt ad=0.29 pd=2.58 as=0.145 ps=1.29 w=1 l=1
X59 AVDD VB1 dda_0.VIT_P2 AVDD sky130_fd_pr__pfet_01v8_hvt ad=0.145 pd=1.29 as=0.145 ps=1.29 w=1 l=1
X60 dda_0.VIT_P1 VI_1B dda_0.SUM_N AVDD sky130_fd_pr__pfet_01v8_hvt ad=0.29 pd=2.58 as=0.145 ps=1.29 w=1 l=1
X61 dda_0.VD5 VB4 VO1 AVDD sky130_fd_pr__pfet_01v8_hvt ad=0.29 pd=2.58 as=0.145 ps=1.29 w=1 l=1
X62 dda_0.VIT_P1 VI_1B dda_0.SUM_N AVDD sky130_fd_pr__pfet_01v8_hvt ad=0.29 pd=2.58 as=0.145 ps=1.29 w=1 l=1
X63 AVDD AVDD AVDD AVDD sky130_fd_pr__pfet_01v8_hvt ad=0.29 pd=2.58 as=0 ps=0 w=1 l=1
X64 AVDD VB1 a_13887_n17331# AVDD sky130_fd_pr__pfet_01v8_hvt ad=0.29 pd=2.58 as=0.145 ps=1.29 w=1 l=1
X65 AVDD AVDD AVDD AVDD sky130_fd_pr__pfet_01v8_hvt ad=0.145 pd=1.29 as=0 ps=0 w=1 l=1
X66 VO1 VB4 dda_0.VD5 AVDD sky130_fd_pr__pfet_01v8_hvt ad=0.145 pd=1.29 as=0.145 ps=1.29 w=1 l=1
X67 dda_0.VD6 VB4 VO2 AVDD sky130_fd_pr__pfet_01v8_hvt ad=0.29 pd=2.58 as=0.145 ps=1.29 w=1 l=1
X68 VB4 VB4 a_22662_n9018# AVDD sky130_fd_pr__pfet_01v8_hvt ad=0.29 pd=2.58 as=0.145 ps=1.29 w=1 l=1
X69 dda_0.VD1 dda_0.VD1 AVDD AVDD sky130_fd_pr__pfet_01v8_hvt ad=0.145 pd=1.29 as=0.145 ps=1.29 w=1 l=1
X70 AVDD VB1 dda_0.VIT_P2 AVDD sky130_fd_pr__pfet_01v8_hvt ad=0.29 pd=2.58 as=0.145 ps=1.29 w=1 l=1
X71 AVDD AVDD AVDD AVDD sky130_fd_pr__pfet_01v8_hvt ad=0.145 pd=1.29 as=0 ps=0 w=1 l=1
X72 a_16339_n14323# VB1 AVDD AVDD sky130_fd_pr__pfet_01v8_hvt ad=0.145 pd=1.29 as=0.29 ps=2.58 w=1 l=1
X73 AVSS AVSS AVSS AVSS sky130_fd_pr__nfet_01v8 ad=0.145 pd=1.29 as=0 ps=0 w=1 l=1
X74 AVDD dda_0.VD2 dda_0.VD2 AVDD sky130_fd_pr__pfet_01v8_hvt ad=0.145 pd=1.29 as=0.145 ps=1.29 w=1 l=1
X75 AVDD dda_0.VD1 dda_0.VD1 AVDD sky130_fd_pr__pfet_01v8_hvt ad=0.29 pd=2.58 as=0.145 ps=1.29 w=1 l=1
X76 AVDD dda_0.VCMFB dda_0.VCMFB AVDD sky130_fd_pr__pfet_01v8_hvt ad=0.145 pd=1.29 as=0.29 ps=2.58 w=1 l=1
X77 AVDD AVDD AVDD AVDD sky130_fd_pr__pfet_01v8_hvt ad=0.145 pd=1.29 as=0 ps=0 w=1 l=1
X78 VO2 VB4 dda_0.VD6 AVDD sky130_fd_pr__pfet_01v8_hvt ad=0.145 pd=1.29 as=0.145 ps=1.29 w=1 l=1
X79 AVDD AVDD AVDD AVDD sky130_fd_pr__pfet_01v8_hvt ad=0.145 pd=1.29 as=0 ps=0 w=1 l=1
X80 AVDD dda_0.VCMFB dda_0.VD5 AVDD sky130_fd_pr__pfet_01v8_hvt ad=0.145 pd=1.29 as=0.145 ps=1.29 w=1 l=1
X81 dda_0.VD6 dda_0.VCMFB AVDD AVDD sky130_fd_pr__pfet_01v8_hvt ad=0.29 pd=2.58 as=0.145 ps=1.29 w=1 l=1
X82 dda_0.SUM_N VI_2A dda_0.VIT_P2 AVDD sky130_fd_pr__pfet_01v8_hvt ad=0.145 pd=1.29 as=0.145 ps=1.29 w=1 l=1
X83 AVSS AVSS AVSS AVSS sky130_fd_pr__nfet_01v8 ad=0.145 pd=1.29 as=0 ps=0 w=1 l=1
X84 dda_0.VD5 VB4 VO1 AVDD sky130_fd_pr__pfet_01v8_hvt ad=0.145 pd=1.29 as=0.145 ps=1.29 w=1 l=1
X85 AVDD AVDD AVDD AVDD sky130_fd_pr__pfet_01v8_hvt ad=0.145 pd=1.29 as=0 ps=0 w=1 l=1
X86 dda_0.VIT_P2 VB1 AVDD AVDD sky130_fd_pr__pfet_01v8_hvt ad=0.145 pd=1.29 as=0.29 ps=2.58 w=1 l=1
X87 dda_0.SUM_P VI_2B dda_0.VIT_P2 AVDD sky130_fd_pr__pfet_01v8_hvt ad=0.145 pd=1.29 as=0.145 ps=1.29 w=1 l=1
X88 dda_0.SUM_N VI_1B dda_0.VIT_P1 AVDD sky130_fd_pr__pfet_01v8_hvt ad=0.145 pd=1.29 as=0.29 ps=2.58 w=1 l=1
X89 AVDD AVDD AVDD AVDD sky130_fd_pr__pfet_01v8_hvt ad=0.29 pd=2.58 as=0 ps=0 w=1 l=1
X90 AVDD AVDD AVDD AVDD sky130_fd_pr__pfet_01v8_hvt ad=0.29 pd=2.58 as=0 ps=0 w=1 l=1
X91 dda_0.VIT_P1 VI_1B dda_0.SUM_N AVDD sky130_fd_pr__pfet_01v8_hvt ad=0.29 pd=2.58 as=0.145 ps=1.29 w=1 l=1
X92 VO1 VB4 dda_0.VD5 AVDD sky130_fd_pr__pfet_01v8_hvt ad=0.145 pd=1.29 as=0.29 ps=2.58 w=1 l=1
X93 AVDD AVDD AVDD AVDD sky130_fd_pr__pfet_01v8_hvt ad=0.29 pd=2.58 as=0 ps=0 w=1 l=1
X94 VO2 VB3 dda_0.SUM_N AVSS sky130_fd_pr__nfet_01v8 ad=0.145 pd=1.29 as=0.29 ps=2.58 w=1 l=1
X95 dda_0.VIT_P2 VI_2A dda_0.SUM_N AVDD sky130_fd_pr__pfet_01v8_hvt ad=0.145 pd=1.29 as=0.145 ps=1.29 w=1 l=1
X96 dda_0.SUM_P VI_2B dda_0.VIT_P2 AVDD sky130_fd_pr__pfet_01v8_hvt ad=0.145 pd=1.29 as=0.145 ps=1.29 w=1 l=1
X97 dda_0.VD6 VB4 VO2 AVDD sky130_fd_pr__pfet_01v8_hvt ad=0.29 pd=2.58 as=0.145 ps=1.29 w=1 l=1
X98 AVDD AVDD AVDD AVDD sky130_fd_pr__pfet_01v8_hvt ad=0.145 pd=1.29 as=0 ps=0 w=1 l=1
X99 AVDD AVDD AVDD AVDD sky130_fd_pr__pfet_01v8_hvt ad=0.29 pd=2.58 as=0 ps=0 w=1 l=1
X100 AVDD AVDD AVDD AVDD sky130_fd_pr__pfet_01v8_hvt ad=0.145 pd=1.29 as=0 ps=0 w=1 l=1
X101 dda_0.VIT_P2 VI_2A dda_0.SUM_N AVDD sky130_fd_pr__pfet_01v8_hvt ad=0.145 pd=1.29 as=0.145 ps=1.29 w=1 l=1
X102 AVDD VB1 dda_0.VIT_P2 AVDD sky130_fd_pr__pfet_01v8_hvt ad=0.29 pd=2.58 as=0.145 ps=1.29 w=1 l=1
X103 AVDD VB1 dda_0.VIT_P1 AVDD sky130_fd_pr__pfet_01v8_hvt ad=0.145 pd=1.29 as=0.145 ps=1.29 w=1 l=1
X104 dda_0.VD1 dda_0.VD1 AVDD AVDD sky130_fd_pr__pfet_01v8_hvt ad=0.29 pd=2.58 as=0.145 ps=1.29 w=1 l=1
X105 AVDD AVDD AVDD AVDD sky130_fd_pr__pfet_01v8_hvt ad=0.29 pd=2.58 as=0 ps=0 w=1 l=1
X106 AVDD dda_0.VD2 dda_0.VD2 AVDD sky130_fd_pr__pfet_01v8_hvt ad=0.145 pd=1.29 as=0.145 ps=1.29 w=1 l=1
X107 AVDD AVDD AVDD AVDD sky130_fd_pr__pfet_01v8_hvt ad=0.29 pd=2.58 as=0 ps=0 w=1 l=1
X108 AVDD dda_0.VCMFB dda_0.VCMFB AVDD sky130_fd_pr__pfet_01v8_hvt ad=0.29 pd=2.58 as=0.145 ps=1.29 w=1 l=1
X109 AVDD AVDD AVDD AVDD sky130_fd_pr__pfet_01v8_hvt ad=0.145 pd=1.29 as=0 ps=0 w=1 l=1
X110 dda_0.SUM_N VI_2A dda_0.VIT_P2 AVDD sky130_fd_pr__pfet_01v8_hvt ad=0.145 pd=1.29 as=0.29 ps=2.58 w=1 l=1
X111 AVDD AVDD AVDD AVDD sky130_fd_pr__pfet_01v8_hvt ad=0.145 pd=1.29 as=0 ps=0 w=1 l=1
X112 AVDD AVDD AVDD AVDD sky130_fd_pr__pfet_01v8_hvt ad=0.29 pd=2.58 as=0 ps=0 w=1 l=1
X113 dda_0.SUM_N VI_1B dda_0.VIT_P1 AVDD sky130_fd_pr__pfet_01v8_hvt ad=0.145 pd=1.29 as=0.145 ps=1.29 w=1 l=1
X114 AVDD AVDD AVDD AVDD sky130_fd_pr__pfet_01v8_hvt ad=0.145 pd=1.29 as=0 ps=0 w=1 l=1
X115 AVDD AVDD AVDD AVDD sky130_fd_pr__pfet_01v8_hvt ad=0.29 pd=2.58 as=0 ps=0 w=1 l=1
X116 AVSS AVSS AVSS AVSS sky130_fd_pr__nfet_01v8 ad=0.29 pd=2.58 as=0 ps=0 w=1 l=1
X117 VO1 VB4 dda_0.VD5 AVDD sky130_fd_pr__pfet_01v8_hvt ad=0.29 pd=2.58 as=0.145 ps=1.29 w=1 l=1
X118 AVDD AVDD AVDD AVDD sky130_fd_pr__pfet_01v8_hvt ad=0.145 pd=1.29 as=0 ps=0 w=1 l=1
X119 AVDD VB1 dda_0.VIT_P2 AVDD sky130_fd_pr__pfet_01v8_hvt ad=0.29 pd=2.58 as=0.145 ps=1.29 w=1 l=1
X120 dda_0.SUM_N VI_1B dda_0.VIT_P1 AVDD sky130_fd_pr__pfet_01v8_hvt ad=0.145 pd=1.29 as=0.145 ps=1.29 w=1 l=1
X121 dda_0.VIT_P1 VI_1A dda_0.SUM_P AVDD sky130_fd_pr__pfet_01v8_hvt ad=0.145 pd=1.29 as=0.29 ps=2.58 w=1 l=1
X122 AVDD dda_0.VCMFB dda_0.VD6 AVDD sky130_fd_pr__pfet_01v8_hvt ad=0.29 pd=2.58 as=0.145 ps=1.29 w=1 l=1
X123 AVDD AVDD AVDD AVDD sky130_fd_pr__pfet_01v8_hvt ad=0.145 pd=1.29 as=0 ps=0 w=1 l=1
X124 AVDD AVDD AVDD AVDD sky130_fd_pr__pfet_01v8_hvt ad=0.145 pd=1.29 as=0 ps=0 w=1 l=1
X125 AVSS VB2 dda_0.SUM_P AVSS sky130_fd_pr__nfet_01v8 ad=0.29 pd=2.58 as=0.145 ps=1.29 w=1 l=1
X126 AVSS AVSS AVSS AVSS sky130_fd_pr__nfet_01v8 ad=0.29 pd=2.58 as=0 ps=0 w=1 l=1
X127 a_16855_n16714# VB1 VB2 AVDD sky130_fd_pr__pfet_01v8_hvt ad=0.145 pd=1.29 as=0.145 ps=1.29 w=1 l=1
X128 AVDD AVDD AVDD AVDD sky130_fd_pr__pfet_01v8_hvt ad=0.145 pd=1.29 as=0 ps=0 w=1 l=1
X129 AVDD VB1 dda_0.VIT_P2 AVDD sky130_fd_pr__pfet_01v8_hvt ad=0.29 pd=2.58 as=0.145 ps=1.29 w=1 l=1
X130 dda_0.VD5 dda_0.VCMFB AVDD AVDD sky130_fd_pr__pfet_01v8_hvt ad=0.145 pd=1.29 as=0.29 ps=2.58 w=1 l=1
X131 dda_0.VD5 VB4 VO1 AVDD sky130_fd_pr__pfet_01v8_hvt ad=0.145 pd=1.29 as=0.29 ps=2.58 w=1 l=1
X132 AVDD AVDD AVDD AVDD sky130_fd_pr__pfet_01v8_hvt ad=0.29 pd=2.58 as=0 ps=0 w=1 l=1
X133 AVDD AVDD AVDD AVDD sky130_fd_pr__pfet_01v8_hvt ad=0.145 pd=1.29 as=0 ps=0 w=1 l=1
X134 dda_0.VIT_P1 VB1 AVDD AVDD sky130_fd_pr__pfet_01v8_hvt ad=0.145 pd=1.29 as=0.145 ps=1.29 w=1 l=1
X135 dda_0.VCMFB dda_0.VCMFB AVDD AVDD sky130_fd_pr__pfet_01v8_hvt ad=0.145 pd=1.29 as=0.145 ps=1.29 w=1 l=1
X136 AVSS AVSS AVSS AVSS sky130_fd_pr__nfet_01v8 ad=0.29 pd=2.58 as=0 ps=0 w=1 l=1
X137 dda_0.VD2 dda_0.VD2 AVDD AVDD sky130_fd_pr__pfet_01v8_hvt ad=0.145 pd=1.29 as=0.29 ps=2.58 w=1 l=1
X138 AVDD AVDD AVDD AVDD sky130_fd_pr__pfet_01v8_hvt ad=0.29 pd=2.58 as=0 ps=0 w=1 l=1
X139 AVDD dda_0.VCMFB dda_0.VCMFB AVDD sky130_fd_pr__pfet_01v8_hvt ad=0.145 pd=1.29 as=0.145 ps=1.29 w=1 l=1
X140 AVDD AVDD AVDD AVDD sky130_fd_pr__pfet_01v8_hvt ad=0.145 pd=1.29 as=0 ps=0 w=1 l=1
X141 AVSS AVSS AVSS AVSS sky130_fd_pr__nfet_01v8 ad=0.29 pd=2.58 as=0 ps=0 w=1 l=1
X142 a_13887_n10774# VB1 VB2 AVDD sky130_fd_pr__pfet_01v8_hvt ad=0.145 pd=1.29 as=0.145 ps=1.29 w=1 l=1
X143 dda_0.VIT_P1 VB1 AVDD AVDD sky130_fd_pr__pfet_01v8_hvt ad=0.145 pd=1.29 as=0.29 ps=2.58 w=1 l=1
X144 dda_0.VD1 dda_0.VD1 AVDD AVDD sky130_fd_pr__pfet_01v8_hvt ad=0.145 pd=1.29 as=0.29 ps=2.58 w=1 l=1
X145 dda_0.VD5 VB4 VO1 AVDD sky130_fd_pr__pfet_01v8_hvt ad=0.29 pd=2.58 as=0.145 ps=1.29 w=1 l=1
X146 AVDD VB1 dda_0.VIT_P1 AVDD sky130_fd_pr__pfet_01v8_hvt ad=0.145 pd=1.29 as=0.145 ps=1.29 w=1 l=1
X147 AVDD AVDD AVDD AVDD sky130_fd_pr__pfet_01v8_hvt ad=0.29 pd=2.58 as=0 ps=0 w=1 l=1
X148 dda_0.SUM_N VB2 AVSS AVSS sky130_fd_pr__nfet_01v8 ad=0.145 pd=1.29 as=0.29 ps=2.58 w=1 l=1
X149 AVSS VB2 dda_0.SUM_P AVSS sky130_fd_pr__nfet_01v8 ad=0.145 pd=1.29 as=0.145 ps=1.29 w=1 l=1
X150 AVDD dda_0.VCMFB dda_0.VD5 AVDD sky130_fd_pr__pfet_01v8_hvt ad=0.145 pd=1.29 as=0.145 ps=1.29 w=1 l=1
X151 AVDD AVDD AVDD AVDD sky130_fd_pr__pfet_01v8_hvt ad=0.145 pd=1.29 as=0 ps=0 w=1 l=1
X152 dda_0.VIT_P2 VI_2A dda_0.SUM_N AVDD sky130_fd_pr__pfet_01v8_hvt ad=0.145 pd=1.29 as=0.145 ps=1.29 w=1 l=1
X153 AVSS IREF a_21723_n12663# AVSS sky130_fd_pr__nfet_01v8 ad=0.29 pd=2.58 as=0.145 ps=1.29 w=1 l=1
X154 VO1 VB3 dda_0.SUM_P AVSS sky130_fd_pr__nfet_01v8 ad=0.145 pd=1.29 as=0.145 ps=1.29 w=1 l=1
X155 AVDD VB1 dda_0.VIT_P2 AVDD sky130_fd_pr__pfet_01v8_hvt ad=0.145 pd=1.29 as=0.145 ps=1.29 w=1 l=1
X156 AVDD AVDD AVDD AVDD sky130_fd_pr__pfet_01v8_hvt ad=0.29 pd=2.58 as=0 ps=0 w=1 l=1
X157 AVDD VB1 a_14597_n13704# AVDD sky130_fd_pr__pfet_01v8_hvt ad=0.145 pd=1.29 as=0.145 ps=1.29 w=1 l=1
X158 AVDD AVDD AVDD AVDD sky130_fd_pr__pfet_01v8_hvt ad=0.29 pd=2.58 as=0 ps=0 w=1 l=1
X159 dda_0.VCMFB VCM dda_0.VIT_N2 AVSS sky130_fd_pr__nfet_01v8 ad=0.29 pd=2.58 as=0.145 ps=1.29 w=1 l=1
X160 AVDD AVDD AVDD AVDD sky130_fd_pr__pfet_01v8_hvt ad=0.145 pd=1.29 as=0 ps=0 w=1 l=1
X161 AVDD VB1 dda_0.VIT_P1 AVDD sky130_fd_pr__pfet_01v8_hvt ad=0.29 pd=2.58 as=0.145 ps=1.29 w=1 l=1
X162 AVDD AVDD AVDD AVDD sky130_fd_pr__pfet_01v8_hvt ad=0.29 pd=2.58 as=0 ps=0 w=1 l=1
X163 AVDD dda_0.VCMFB dda_0.VCMFB AVDD sky130_fd_pr__pfet_01v8_hvt ad=0.29 pd=2.58 as=0.145 ps=1.29 w=1 l=1
X164 dda_0.VIT_N2 VB2 AVSS AVSS sky130_fd_pr__nfet_01v8 ad=0.145 pd=1.29 as=0.29 ps=2.58 w=1 l=1
X165 AVDD AVDD AVDD AVDD sky130_fd_pr__pfet_01v8_hvt ad=0.145 pd=1.29 as=0 ps=0 w=1 l=1
X166 AVDD AVDD AVDD AVDD sky130_fd_pr__pfet_01v8_hvt ad=0.29 pd=2.58 as=0 ps=0 w=1 l=1
X167 dda_0.SUM_N VI_1B dda_0.VIT_P1 AVDD sky130_fd_pr__pfet_01v8_hvt ad=0.29 pd=2.58 as=0.145 ps=1.29 w=1 l=1
X168 AVDD AVDD AVDD AVDD sky130_fd_pr__pfet_01v8_hvt ad=0.145 pd=1.29 as=0 ps=0 w=1 l=1
X169 AVDD AVDD AVDD AVDD sky130_fd_pr__pfet_01v8_hvt ad=0.29 pd=2.58 as=0 ps=0 w=1 l=1
X170 AVDD AVDD AVDD AVDD sky130_fd_pr__pfet_01v8_hvt ad=0.29 pd=2.58 as=0 ps=0 w=1 l=1
X171 AVDD AVDD AVDD AVDD sky130_fd_pr__pfet_01v8_hvt ad=0.145 pd=1.29 as=0 ps=0 w=1 l=1
X172 dda_0.VIT_P2 VI_2B dda_0.SUM_P AVDD sky130_fd_pr__pfet_01v8_hvt ad=0.145 pd=1.29 as=0.145 ps=1.29 w=1 l=1
X173 AVSS AVSS AVSS AVSS sky130_fd_pr__nfet_01v8 ad=0.29 pd=2.58 as=0 ps=0 w=1 l=1
X174 AVSS AVSS AVSS AVSS sky130_fd_pr__nfet_01v8 ad=0.29 pd=2.58 as=0 ps=0 w=1 l=1
X175 VO1 VB4 dda_0.VD5 AVDD sky130_fd_pr__pfet_01v8_hvt ad=0.145 pd=1.29 as=0.29 ps=2.58 w=1 l=1
X176 AVDD AVDD AVDD AVDD sky130_fd_pr__pfet_01v8_hvt ad=0.29 pd=2.58 as=0 ps=0 w=1 l=1
X177 VO2 VB4 dda_0.VD6 AVDD sky130_fd_pr__pfet_01v8_hvt ad=0.145 pd=1.29 as=0.145 ps=1.29 w=1 l=1
X178 AVDD AVDD AVDD AVDD sky130_fd_pr__pfet_01v8_hvt ad=0.29 pd=2.58 as=0 ps=0 w=1 l=1
X179 dda_0.VD5 dda_0.VCMFB AVDD AVDD sky130_fd_pr__pfet_01v8_hvt ad=0.145 pd=1.29 as=0.145 ps=1.29 w=1 l=1
X180 dda_0.VD5 dda_0.VCMFB AVDD AVDD sky130_fd_pr__pfet_01v8_hvt ad=0.145 pd=1.29 as=0.29 ps=2.58 w=1 l=1
X181 AVSS AVSS AVSS AVSS sky130_fd_pr__nfet_01v8 ad=0.29 pd=2.58 as=0 ps=0 w=1 l=1
X182 a_22662_n7484# VB4 a_22404_n7484# AVDD sky130_fd_pr__pfet_01v8_hvt ad=0.145 pd=1.29 as=0.145 ps=1.29 w=1 l=1
X183 AVDD AVDD AVDD AVDD sky130_fd_pr__pfet_01v8_hvt ad=0.145 pd=1.29 as=0 ps=0 w=1 l=1
X184 AVDD AVDD AVDD AVDD sky130_fd_pr__pfet_01v8_hvt ad=0.29 pd=2.58 as=0 ps=0 w=1 l=1
X185 dda_0.VIT_P1 VI_1A dda_0.SUM_P AVDD sky130_fd_pr__pfet_01v8_hvt ad=0.29 pd=2.58 as=0.145 ps=1.29 w=1 l=1
X186 AVDD AVDD AVDD AVDD sky130_fd_pr__pfet_01v8_hvt ad=0.145 pd=1.29 as=0 ps=0 w=1 l=1
X187 AVDD AVDD AVDD AVDD sky130_fd_pr__pfet_01v8_hvt ad=0.145 pd=1.29 as=0 ps=0 w=1 l=1
X188 dda_0.SUM_N VI_1B dda_0.VIT_P1 AVDD sky130_fd_pr__pfet_01v8_hvt ad=0.145 pd=1.29 as=0.145 ps=1.29 w=1 l=1
X189 AVDD AVDD AVDD AVDD sky130_fd_pr__pfet_01v8_hvt ad=0.145 pd=1.29 as=0 ps=0 w=1 l=1
X190 VO2 VB4 dda_0.VD6 AVDD sky130_fd_pr__pfet_01v8_hvt ad=0.145 pd=1.29 as=0.29 ps=2.58 w=1 l=1
X191 dda_0.VD5 VB4 VO1 AVDD sky130_fd_pr__pfet_01v8_hvt ad=0.145 pd=1.29 as=0.145 ps=1.29 w=1 l=1
X192 AVSS AVSS AVSS AVSS sky130_fd_pr__nfet_01v8 ad=0.29 pd=2.58 as=0 ps=0 w=1 l=1
X193 AVSS AVSS AVSS AVSS sky130_fd_pr__nfet_01v8 ad=0.29 pd=2.58 as=0 ps=0 w=1 l=1
X194 AVDD AVDD AVDD AVDD sky130_fd_pr__pfet_01v8_hvt ad=0.145 pd=1.29 as=0 ps=0 w=1 l=1
X195 AVDD dda_0.VCMFB dda_0.VD5 AVDD sky130_fd_pr__pfet_01v8_hvt ad=0.145 pd=1.29 as=0.145 ps=1.29 w=1 l=1
X196 AVSS AVSS AVSS AVSS sky130_fd_pr__nfet_01v8 ad=0.29 pd=2.58 as=0 ps=0 w=1 l=1
X197 AVDD VB1 dda_0.VIT_P1 AVDD sky130_fd_pr__pfet_01v8_hvt ad=0.29 pd=2.58 as=0.145 ps=1.29 w=1 l=1
X198 dda_0.VD6 dda_0.VCMFB AVDD AVDD sky130_fd_pr__pfet_01v8_hvt ad=0.145 pd=1.29 as=0.29 ps=2.58 w=1 l=1
X199 AVDD AVDD AVDD AVDD sky130_fd_pr__pfet_01v8_hvt ad=0.29 pd=2.58 as=0 ps=0 w=1 l=1
X200 AVDD AVDD AVDD AVDD sky130_fd_pr__pfet_01v8_hvt ad=0.145 pd=1.29 as=0 ps=0 w=1 l=1
X201 AVDD VB1 a_16855_n9266# AVDD sky130_fd_pr__pfet_01v8_hvt ad=0.29 pd=2.58 as=0.145 ps=1.29 w=1 l=1
X202 AVDD AVDD AVDD AVDD sky130_fd_pr__pfet_01v8_hvt ad=0.145 pd=1.29 as=0 ps=0 w=1 l=1
X203 AVSS IREF a_23429_n12663# AVSS sky130_fd_pr__nfet_01v8 ad=0.29 pd=2.58 as=0.145 ps=1.29 w=1 l=1
X204 AVDD AVDD AVDD AVDD sky130_fd_pr__pfet_01v8_hvt ad=0.29 pd=2.58 as=0 ps=0 w=1 l=1
X205 AVDD AVDD AVDD AVDD sky130_fd_pr__pfet_01v8_hvt ad=0.145 pd=1.29 as=0 ps=0 w=1 l=1
X206 dda_0.VD2 dda_0.VD2 AVDD AVDD sky130_fd_pr__pfet_01v8_hvt ad=0.145 pd=1.29 as=0.29 ps=2.58 w=1 l=1
X207 dda_0.VIT_P1 VB1 AVDD AVDD sky130_fd_pr__pfet_01v8_hvt ad=0.145 pd=1.29 as=0.29 ps=2.58 w=1 l=1
X208 AVDD AVDD AVDD AVDD sky130_fd_pr__pfet_01v8_hvt ad=0.29 pd=2.58 as=0 ps=0 w=1 l=1
X209 AVDD dda_0.VD1 dda_0.VD1 AVDD sky130_fd_pr__pfet_01v8_hvt ad=0.145 pd=1.29 as=0.145 ps=1.29 w=1 l=1
X210 AVDD VB1 dda_0.VIT_P2 AVDD sky130_fd_pr__pfet_01v8_hvt ad=0.29 pd=2.58 as=0.145 ps=1.29 w=1 l=1
X211 dda_0.VIT_P2 VB1 AVDD AVDD sky130_fd_pr__pfet_01v8_hvt ad=0.145 pd=1.29 as=0.29 ps=2.58 w=1 l=1
X212 dda_0.VCMFB dda_0.VCMFB AVDD AVDD sky130_fd_pr__pfet_01v8_hvt ad=0.145 pd=1.29 as=0.145 ps=1.29 w=1 l=1
X213 VO1 VB4 dda_0.VD5 AVDD sky130_fd_pr__pfet_01v8_hvt ad=0.145 pd=1.29 as=0.145 ps=1.29 w=1 l=1
X214 AVDD AVDD AVDD AVDD sky130_fd_pr__pfet_01v8_hvt ad=0.145 pd=1.29 as=0 ps=0 w=1 l=1
X215 AVDD AVDD AVDD AVDD sky130_fd_pr__pfet_01v8_hvt ad=0.145 pd=1.29 as=0 ps=0 w=1 l=1
X216 dda_0.VIT_P1 VI_1B dda_0.SUM_N AVDD sky130_fd_pr__pfet_01v8_hvt ad=0.145 pd=1.29 as=0.145 ps=1.29 w=1 l=1
X217 a_13371_n12143# VB1 AVDD AVDD sky130_fd_pr__pfet_01v8_hvt ad=0.145 pd=1.29 as=0.29 ps=2.58 w=1 l=1
X218 dda_0.VD6 VB4 VO2 AVDD sky130_fd_pr__pfet_01v8_hvt ad=0.145 pd=1.29 as=0.29 ps=2.58 w=1 l=1
X219 AVDD AVDD AVDD AVDD sky130_fd_pr__pfet_01v8_hvt ad=0.29 pd=2.58 as=0 ps=0 w=1 l=1
X220 dda_0.VD5 dda_0.VCMFB AVDD AVDD sky130_fd_pr__pfet_01v8_hvt ad=0.145 pd=1.29 as=0.29 ps=2.58 w=1 l=1
X221 VB1 VB1 a_16339_n11522# AVDD sky130_fd_pr__pfet_01v8_hvt ad=0.145 pd=1.29 as=0.145 ps=1.29 w=1 l=1
X222 AVDD dda_0.VCMFB dda_0.VCMFB AVDD sky130_fd_pr__pfet_01v8_hvt ad=0.29 pd=2.58 as=0.145 ps=1.29 w=1 l=1
X223 AVDD dda_0.VD1 dda_0.VD1 AVDD sky130_fd_pr__pfet_01v8_hvt ad=0.29 pd=2.58 as=0.145 ps=1.29 w=1 l=1
X224 dda_0.SUM_N VI_1B dda_0.VIT_P1 AVDD sky130_fd_pr__pfet_01v8_hvt ad=0.145 pd=1.29 as=0.29 ps=2.58 w=1 l=1
X225 AVDD AVDD AVDD AVDD sky130_fd_pr__pfet_01v8_hvt ad=0.29 pd=2.58 as=0 ps=0 w=1 l=1
X226 AVDD AVDD AVDD AVDD sky130_fd_pr__pfet_01v8_hvt ad=0.29 pd=2.58 as=0 ps=0 w=1 l=1
X227 AVSS AVSS AVSS AVSS sky130_fd_pr__nfet_01v8 ad=0.29 pd=2.58 as=0 ps=0 w=1 l=1
X228 AVDD AVDD AVDD AVDD sky130_fd_pr__pfet_01v8_hvt ad=0.29 pd=2.58 as=0 ps=0 w=1 l=1
X229 AVSS AVSS AVSS AVSS sky130_fd_pr__nfet_01v8 ad=0.29 pd=2.58 as=0 ps=0 w=1 l=1
X230 AVDD AVDD AVDD AVDD sky130_fd_pr__pfet_01v8_hvt ad=0.29 pd=2.58 as=0 ps=0 w=1 l=1
X231 dda_0.VD5 dda_0.VCMFB AVDD AVDD sky130_fd_pr__pfet_01v8_hvt ad=0.145 pd=1.29 as=0.29 ps=2.58 w=1 l=1
X232 AVDD dda_0.VCMFB dda_0.VCMFB AVDD sky130_fd_pr__pfet_01v8_hvt ad=0.145 pd=1.29 as=0.29 ps=2.58 w=1 l=1
X233 dda_0.SUM_N VI_2A dda_0.VIT_P2 AVDD sky130_fd_pr__pfet_01v8_hvt ad=0.145 pd=1.29 as=0.29 ps=2.58 w=1 l=1
X234 AVDD AVDD AVDD AVDD sky130_fd_pr__pfet_01v8_hvt ad=0.29 pd=2.58 as=0 ps=0 w=1 l=1
X235 AVDD dda_0.VD1 dda_0.VD1 AVDD sky130_fd_pr__pfet_01v8_hvt ad=0.29 pd=2.58 as=0.145 ps=1.29 w=1 l=1
X236 dda_0.VIT_P2 VB1 AVDD AVDD sky130_fd_pr__pfet_01v8_hvt ad=0.145 pd=1.29 as=0.29 ps=2.58 w=1 l=1
X237 dda_0.SUM_P VI_2B dda_0.VIT_P2 AVDD sky130_fd_pr__pfet_01v8_hvt ad=0.145 pd=1.29 as=0.145 ps=1.29 w=1 l=1
X238 AVDD VB1 a_14597_n15827# AVDD sky130_fd_pr__pfet_01v8_hvt ad=0.145 pd=1.29 as=0.145 ps=1.29 w=1 l=1
X239 AVDD dda_0.VCMFB dda_0.VD6 AVDD sky130_fd_pr__pfet_01v8_hvt ad=0.29 pd=2.58 as=0.145 ps=1.29 w=1 l=1
X240 AVDD AVDD AVDD AVDD sky130_fd_pr__pfet_01v8_hvt ad=0.29 pd=2.58 as=0 ps=0 w=1 l=1
X241 AVDD AVDD AVDD AVDD sky130_fd_pr__pfet_01v8_hvt ad=0.145 pd=1.29 as=0 ps=0 w=1 l=1
X242 AVDD AVDD AVDD AVDD sky130_fd_pr__pfet_01v8_hvt ad=0.145 pd=1.29 as=0 ps=0 w=1 l=1
X243 a_15113_n14323# VB1 AVDD AVDD sky130_fd_pr__pfet_01v8_hvt ad=0.145 pd=1.29 as=0.145 ps=1.29 w=1 l=1
X244 AVDD AVDD AVDD AVDD sky130_fd_pr__pfet_01v8_hvt ad=0.145 pd=1.29 as=0 ps=0 w=1 l=1
X245 VO2 VB3 dda_0.SUM_N AVSS sky130_fd_pr__nfet_01v8 ad=0.145 pd=1.29 as=0.29 ps=2.58 w=1 l=1
X246 AVDD AVDD AVDD AVDD sky130_fd_pr__pfet_01v8_hvt ad=0.29 pd=2.58 as=0 ps=0 w=1 l=1
X247 AVSS AVSS AVSS AVSS sky130_fd_pr__nfet_01v8 ad=0.29 pd=2.58 as=0 ps=0 w=1 l=1
X248 AVDD AVDD AVDD AVDD sky130_fd_pr__pfet_01v8_hvt ad=0.145 pd=1.29 as=0 ps=0 w=1 l=1
X249 AVDD AVDD AVDD AVDD sky130_fd_pr__pfet_01v8_hvt ad=0.145 pd=1.29 as=0 ps=0 w=1 l=1
X250 dda_0.VIT_P1 VI_1B dda_0.SUM_N AVDD sky130_fd_pr__pfet_01v8_hvt ad=0.145 pd=1.29 as=0.145 ps=1.29 w=1 l=1
X251 dda_0.SUM_P VI_1A dda_0.VIT_P1 AVDD sky130_fd_pr__pfet_01v8_hvt ad=0.145 pd=1.29 as=0.145 ps=1.29 w=1 l=1
X252 AVDD VB1 a_15629_n16714# AVDD sky130_fd_pr__pfet_01v8_hvt ad=0.29 pd=2.58 as=0.145 ps=1.29 w=1 l=1
X253 AVDD AVDD AVDD AVDD sky130_fd_pr__pfet_01v8_hvt ad=0.29 pd=2.58 as=0 ps=0 w=1 l=1
X254 AVDD dda_0.VD2 dda_0.VD2 AVDD sky130_fd_pr__pfet_01v8_hvt ad=0.29 pd=2.58 as=0.145 ps=1.29 w=1 l=1
X255 dda_0.VD2 dda_0.VD2 AVDD AVDD sky130_fd_pr__pfet_01v8_hvt ad=0.145 pd=1.29 as=0.145 ps=1.29 w=1 l=1
X256 AVDD AVDD AVDD AVDD sky130_fd_pr__pfet_01v8_hvt ad=0.145 pd=1.29 as=0 ps=0 w=1 l=1
X257 AVDD AVDD AVDD AVDD sky130_fd_pr__pfet_01v8_hvt ad=0.145 pd=1.29 as=0 ps=0 w=1 l=1
X258 AVDD AVDD AVDD AVDD sky130_fd_pr__pfet_01v8_hvt ad=0.145 pd=1.29 as=0 ps=0 w=1 l=1
X259 dda_0.VIT_P1 VB1 AVDD AVDD sky130_fd_pr__pfet_01v8_hvt ad=0.145 pd=1.29 as=0.145 ps=1.29 w=1 l=1
X260 AVDD AVDD AVDD AVDD sky130_fd_pr__pfet_01v8_hvt ad=0.145 pd=1.29 as=0 ps=0 w=1 l=1
X261 dda_0.VD2 dda_0.VD2 AVDD AVDD sky130_fd_pr__pfet_01v8_hvt ad=0.145 pd=1.29 as=0.145 ps=1.29 w=1 l=1
X262 AVDD dda_0.VD1 dda_0.VD1 AVDD sky130_fd_pr__pfet_01v8_hvt ad=0.145 pd=1.29 as=0.145 ps=1.29 w=1 l=1
X263 AVDD VB1 dda_0.VIT_P1 AVDD sky130_fd_pr__pfet_01v8_hvt ad=0.29 pd=2.58 as=0.145 ps=1.29 w=1 l=1
X264 dda_0.VD6 dda_0.VCMFB AVDD AVDD sky130_fd_pr__pfet_01v8_hvt ad=0.145 pd=1.29 as=0.145 ps=1.29 w=1 l=1
X265 AVDD AVDD AVDD AVDD sky130_fd_pr__pfet_01v8_hvt ad=0.29 pd=2.58 as=0 ps=0 w=1 l=1
X266 AVDD AVDD AVDD AVDD sky130_fd_pr__pfet_01v8_hvt ad=0.29 pd=2.58 as=0 ps=0 w=1 l=1
X267 AVDD dda_0.VD1 dda_0.VD1 AVDD sky130_fd_pr__pfet_01v8_hvt ad=0.145 pd=1.29 as=0.145 ps=1.29 w=1 l=1
X268 AVDD AVDD AVDD AVDD sky130_fd_pr__pfet_01v8_hvt ad=0.145 pd=1.29 as=0 ps=0 w=1 l=1
X269 AVDD VB1 dda_0.VIT_P2 AVDD sky130_fd_pr__pfet_01v8_hvt ad=0.29 pd=2.58 as=0.145 ps=1.29 w=1 l=1
X270 AVSS AVSS AVSS AVSS sky130_fd_pr__nfet_01v8 ad=0.29 pd=2.58 as=0 ps=0 w=1 l=1
X271 AVDD AVDD AVDD AVDD sky130_fd_pr__pfet_01v8_hvt ad=0.29 pd=2.58 as=0 ps=0 w=1 l=1
X272 a_13887_n13704# VB1 VB1 AVDD sky130_fd_pr__pfet_01v8_hvt ad=0.145 pd=1.29 as=0.145 ps=1.29 w=1 l=1
X273 AVDD AVDD AVDD AVDD sky130_fd_pr__pfet_01v8_hvt ad=0.145 pd=1.29 as=0 ps=0 w=1 l=1
X274 AVDD AVDD AVDD AVDD sky130_fd_pr__pfet_01v8_hvt ad=0.29 pd=2.58 as=0 ps=0 w=1 l=1
X275 AVDD dda_0.VD2 dda_0.VD2 AVDD sky130_fd_pr__pfet_01v8_hvt ad=0.29 pd=2.58 as=0.145 ps=1.29 w=1 l=1
X276 AVDD AVDD AVDD AVDD sky130_fd_pr__pfet_01v8_hvt ad=0.145 pd=1.29 as=0 ps=0 w=1 l=1
X277 AVDD dda_0.VCMFB dda_0.VD5 AVDD sky130_fd_pr__pfet_01v8_hvt ad=0.29 pd=2.58 as=0.145 ps=1.29 w=1 l=1
X278 AVDD AVDD AVDD AVDD sky130_fd_pr__pfet_01v8_hvt ad=0.145 pd=1.29 as=0 ps=0 w=1 l=1
X279 AVDD AVDD AVDD AVDD sky130_fd_pr__pfet_01v8_hvt ad=0.29 pd=2.58 as=0 ps=0 w=1 l=1
X280 dda_0.VCMFB dda_0.VCMFB AVDD AVDD sky130_fd_pr__pfet_01v8_hvt ad=0.145 pd=1.29 as=0.29 ps=2.58 w=1 l=1
X281 AVDD dda_0.VCMFB dda_0.VD5 AVDD sky130_fd_pr__pfet_01v8_hvt ad=0.29 pd=2.58 as=0.145 ps=1.29 w=1 l=1
X282 dda_0.VIT_P2 VI_2A dda_0.SUM_N AVDD sky130_fd_pr__pfet_01v8_hvt ad=0.29 pd=2.58 as=0.145 ps=1.29 w=1 l=1
X283 dda_0.SUM_P VI_1A dda_0.VIT_P1 AVDD sky130_fd_pr__pfet_01v8_hvt ad=0.145 pd=1.29 as=0.145 ps=1.29 w=1 l=1
X284 AVDD AVDD AVDD AVDD sky130_fd_pr__pfet_01v8_hvt ad=0.145 pd=1.29 as=0 ps=0 w=1 l=1
X285 AVDD AVDD AVDD AVDD sky130_fd_pr__pfet_01v8_hvt ad=0.145 pd=1.29 as=0 ps=0 w=1 l=1
X286 AVDD AVDD AVDD AVDD sky130_fd_pr__pfet_01v8_hvt ad=0.29 pd=2.58 as=0 ps=0 w=1 l=1
X287 dda_0.VIT_P2 VB1 AVDD AVDD sky130_fd_pr__pfet_01v8_hvt ad=0.145 pd=1.29 as=0.29 ps=2.58 w=1 l=1
X288 dda_0.VIT_P1 VI_1A dda_0.SUM_P AVDD sky130_fd_pr__pfet_01v8_hvt ad=0.29 pd=2.58 as=0.145 ps=1.29 w=1 l=1
X289 AVDD dda_0.VD1 dda_0.VD1 AVDD sky130_fd_pr__pfet_01v8_hvt ad=0.145 pd=1.29 as=0.29 ps=2.58 w=1 l=1
X290 AVDD dda_0.VCMFB dda_0.VCMFB AVDD sky130_fd_pr__pfet_01v8_hvt ad=0.145 pd=1.29 as=0.145 ps=1.29 w=1 l=1
X291 AVDD AVDD AVDD AVDD sky130_fd_pr__pfet_01v8_hvt ad=0.29 pd=2.58 as=0 ps=0 w=1 l=1
X292 AVSS VB2 dda_0.SUM_P AVSS sky130_fd_pr__nfet_01v8 ad=0.29 pd=2.58 as=0.145 ps=1.29 w=1 l=1
X293 dda_0.VCMFB dda_0.VCMFB AVDD AVDD sky130_fd_pr__pfet_01v8_hvt ad=0.29 pd=2.58 as=0.145 ps=1.29 w=1 l=1
X294 AVDD AVDD AVDD AVDD sky130_fd_pr__pfet_01v8_hvt ad=0.29 pd=2.58 as=0 ps=0 w=1 l=1
X295 AVSS VB2 dda_0.SUM_P AVSS sky130_fd_pr__nfet_01v8 ad=0.29 pd=2.58 as=0.145 ps=1.29 w=1 l=1
X296 VO1 VB4 dda_0.VD5 AVDD sky130_fd_pr__pfet_01v8_hvt ad=0.145 pd=1.29 as=0.145 ps=1.29 w=1 l=1
X297 AVDD AVDD AVDD AVDD sky130_fd_pr__pfet_01v8_hvt ad=0.29 pd=2.58 as=0 ps=0 w=1 l=1
X298 dda_0.VIT_N1 VO1 dda_0.VD1 AVSS sky130_fd_pr__nfet_01v8 ad=0.145 pd=1.29 as=0.29 ps=2.58 w=1 l=1
X299 AVSS AVSS AVSS AVSS sky130_fd_pr__nfet_01v8 ad=0.29 pd=2.58 as=0 ps=0 w=1 l=1
X300 dda_0.VIT_P2 VB1 AVDD AVDD sky130_fd_pr__pfet_01v8_hvt ad=0.145 pd=1.29 as=0.145 ps=1.29 w=1 l=1
X301 AVDD AVDD AVDD AVDD sky130_fd_pr__pfet_01v8_hvt ad=0.29 pd=2.58 as=0 ps=0 w=1 l=1
X302 AVDD AVDD AVDD AVDD sky130_fd_pr__pfet_01v8_hvt ad=0.145 pd=1.29 as=0 ps=0 w=1 l=1
X303 AVDD VB1 dda_0.VIT_P1 AVDD sky130_fd_pr__pfet_01v8_hvt ad=0.29 pd=2.58 as=0.145 ps=1.29 w=1 l=1
X304 AVDD AVDD AVDD AVDD sky130_fd_pr__pfet_01v8_hvt ad=0.29 pd=2.58 as=0 ps=0 w=1 l=1
X305 AVDD AVDD AVDD AVDD sky130_fd_pr__pfet_01v8_hvt ad=0.29 pd=2.58 as=0 ps=0 w=1 l=1
X306 VO1 VB3 dda_0.SUM_P AVSS sky130_fd_pr__nfet_01v8 ad=0.145 pd=1.29 as=0.29 ps=2.58 w=1 l=1
X307 dda_0.VD6 VB4 VO2 AVDD sky130_fd_pr__pfet_01v8_hvt ad=0.145 pd=1.29 as=0.145 ps=1.29 w=1 l=1
X308 dda_0.VD5 VB4 VO1 AVDD sky130_fd_pr__pfet_01v8_hvt ad=0.29 pd=2.58 as=0.145 ps=1.29 w=1 l=1
X309 dda_0.VD6 dda_0.VCMFB AVDD AVDD sky130_fd_pr__pfet_01v8_hvt ad=0.145 pd=1.29 as=0.145 ps=1.29 w=1 l=1
X310 AVDD AVDD AVDD AVDD sky130_fd_pr__pfet_01v8_hvt ad=0.29 pd=2.58 as=0 ps=0 w=1 l=1